@<TRIPOS>MOLECULE
COO
    7     6     1     0     0
SMALL
No Charge or Current Charge


@<TRIPOS>ATOM
      1 C1           0.2170     0.0010    -0.0000 CO         1 COO       0.947256
      2 O1           0.6910     1.1420     0.0000 O2         1 COO      -0.857671
      3 C2          -1.3370    -0.0500    -0.0000 2C         1 COO      -0.326506
      4 O2           0.7930    -1.0890     0.0000 O2         1 COO      -0.857671
      5 H1          -1.7220     0.4740    -0.8730 HC         1 COO       0.031531
      6 H2          -1.7110    -1.0700    -0.0000 HC         1 COO       0.031531
      7 H3          -1.7220     0.4730     0.8740 HC         1 COO       0.031531
@<TRIPOS>BOND
     1     1     2 1   
     2     1     3 1   
     3     1     4 1   
     4     3     5 1   
     5     3     6 1   
     6     3     7 1   
@<TRIPOS>SUBSTRUCTURE
     1 COO         1 TEMP              0 ****  ****    0 ROOT
