@<TRIPOS>MOLECULE
MAM
    9     8     1     0     0
SMALL
No Charge or Current Charge


@<TRIPOS>ATOM
      1 N1           1.0050    -0.8400    -0.0320 N          1 MAM      -1.085689
      2 O1           0.3850     1.3110     0.0060 O          1 MAM      -0.641503
      3 C1           0.0790     0.1530    -0.0080 C          1 MAM       0.959004
      4 C2          -1.3610    -0.3130    -0.0000 CT         1 MAM      -0.539122
      5 H1           1.9600    -0.5860     0.0850 H          1 MAM       0.436996
      6 H2           0.7570    -1.7920     0.1040 H          1 MAM       0.436996
      7 H3          -1.5240    -1.1170    -0.7090 HC         1 MAM       0.144439
      8 H4          -1.6210    -0.6760     0.9900 HC         1 MAM       0.144439
      9 H5          -2.0010     0.5230    -0.2430 HC         1 MAM       0.144439
@<TRIPOS>BOND
     1     1     3 1   
     2     1     5 1   
     3     1     6 1   
     4     2     3 2   
     5     3     4 1   
     6     4     7 1   
     7     4     8 1   
     8     4     9 1   
@<TRIPOS>SUBSTRUCTURE
     1 MAM         1 TEMP              0 ****  ****    0 ROOT
