@<TRIPOS>MOLECULE
ANT
    6     5     1     0     0
SMALL
No Charge or Current Charge


@<TRIPOS>ATOM
      1 C1          -0.2900    -0.0000    -0.0000 CY         1 ANT       0.444840
      2 N1          -1.4240     0.0000     0.0000 NY         1 ANT      -0.510479
      3 C2           1.1780     0.0000     0.0000 CT         1 ANT      -0.392972
      4 H1           1.5460     0.4920    -0.8910 HC         1 ANT       0.152870
      5 H2           1.5450     0.5260     0.8720 HC         1 ANT       0.152870
      6 H3           1.5460    -1.0180     0.0190 HC         1 ANT       0.152870
@<TRIPOS>BOND
     1     1     2 3   
     2     1     3 1   
     3     3     4 1   
     4     3     5 1   
     5     3     6 1   
@<TRIPOS>SUBSTRUCTURE
     1 ANT         1 TEMP              0 ****  ****    0 ROOT
