@<TRIPOS>MOLECULE
CN3
    8     7     1     0     0
SMALL
No Charge or Current Charge


@<TRIPOS>ATOM
      1 C1           0.8000     0.0000     0.0000 CT         1 CN3      -0.039156
      2 N1          -0.7080    -0.0000     0.0000 N3         1 CN3      -0.273431
      3 H1           1.1340    -0.2630    -0.9900 HP         1 CN3       0.119195
      4 H2           1.1340     0.9890     0.2670 HP         1 CN3       0.119195
      5 H3           1.1340    -0.7260     0.7230 HP         1 CN3       0.119195
      6 H4          -1.0800     0.6670    -0.6640 H          1 CN3       0.318334
      7 H5          -1.0800    -0.9080    -0.2450 H          1 CN3       0.318334
      8 H6          -1.0800     0.2410     0.9090 H          1 CN3       0.318334
@<TRIPOS>BOND
     1     1     2 1   
     2     1     3 1   
     3     1     4 1   
     4     1     5 1   
     5     2     6 1   
     6     2     7 1   
     7     2     8 1   
@<TRIPOS>SUBSTRUCTURE
     1 CN3         1 TEMP              0 ****  ****    0 ROOT
