@<TRIPOS>MOLECULE
ETA
    9     8     1     0     0
SMALL
No Charge or Current Charge


@<TRIPOS>ATOM
      1 O1          -1.2220    -0.2620    -0.1100 OH         1 ETA      -0.729954
      2 C1          -0.0900     0.5530     0.0450 CT         1 ETA       0.484332
      3 C2           1.2090    -0.2370    -0.0190 CT         1 ETA      -0.280441
      4 H1          -0.1460     1.1130     0.9770 H1         1 ETA      -0.042504
      5 H2          -0.1310     1.2710    -0.7640 H1         1 ETA      -0.042504
      6 H3           2.0670     0.4240     0.0610 HC         1 ETA       0.060783
      7 H4          -1.2730    -0.8710     0.6140 HO         1 ETA       0.428720
      8 H5           1.2680    -0.9570     0.7930 HC         1 ETA       0.060783
      9 H6           1.2760    -0.7790    -0.9560 HC         1 ETA       0.060783
@<TRIPOS>BOND
     1     1     2 1   
     2     1     7 1   
     3     2     3 1   
     4     2     4 1   
     5     2     5 1   
     6     3     6 1   
     7     3     8 1   
     8     3     9 1   
@<TRIPOS>SUBSTRUCTURE
     1 ETA         1 TEMP              0 ****  ****    0 ROOT
