@<TRIPOS>MOLECULE
ALF
    6     5     1     0     0
SMALL
No Charge or Current Charge


@<TRIPOS>ATOM
      1 C1           0.2900     0.0000    -0.0000 CY         1 ALF       0.445632
      2 N1           1.4240    -0.0000     0.0000 NY         1 ALF      -0.510348
      3 C2          -1.1790    -0.0000     0.0000 R4         1 ALF      -0.397919
      4 H1          -1.5460     0.7180     0.7210 HC         1 ALF       0.154212
      5 H2          -1.5450    -0.9840     0.2610 HC         1 ALF       0.154212
      6 H3          -1.5460     0.2660    -0.9830 HC         1 ALF       0.154212
@<TRIPOS>BOND
     1     1     2 3   
     2     1     3 1   
     3     3     4 1   
     4     3     5 1   
     5     3     6 1   
@<TRIPOS>SUBSTRUCTURE
     1 ALF         1 TEMP              0 ****  ****    0 ROOT
