@<TRIPOS>MOLECULE
ANF
    9     8     1     0     0
SMALL
No Charge or Current Charge


@<TRIPOS>ATOM
      1 C1           1.3610    -0.3130    -0.0000 CT         1 ANF      -0.543883
      2 C2          -0.0790     0.1530    -0.0080 C          1 ANF       0.960866
      3 N1          -1.0060    -0.8400    -0.0320 N          1 ANF      -1.084873
      4 O1          -0.3850     1.3110     0.0060 O          1 ANF      -0.641998
      5 H1           1.6230    -0.6670     0.9930 HC         1 ANF       0.145605
      6 H2           1.5220    -1.1250    -0.7010 HC         1 ANF       0.145605
      7 H3           2.0000     0.5200    -0.2520 HC         1 ANF       0.145605
      8 H4          -1.9610    -0.5850     0.0860 H          1 ANF       0.436537
      9 H5          -0.7580    -1.7920     0.1030 H          1 ANF       0.436537
@<TRIPOS>BOND
     1     1     2 1   
     2     1     5 1   
     3     1     6 1   
     4     1     7 1   
     5     2     3 1   
     6     2     4 2   
     7     3     8 1   
     8     3     9 1   
@<TRIPOS>SUBSTRUCTURE
     1 ANF         1 TEMP              0 ****  ****    0 ROOT
