@<TRIPOS>MOLECULE
APF
    7     6     1     0     0
SMALL
No Charge or Current Charge


@<TRIPOS>ATOM
      1 C1           1.3420    -0.0200    -0.0040 CT         1 APF      -0.313665
      2 C2          -0.2140     0.0010    -0.0110 R6         1 APF       0.915720
      3 O1          -0.7670    -1.1220     0.0020 O2         1 APF      -0.849175
      4 O2          -0.7250     1.1430     0.0020 O2         1 APF      -0.849175
      5 H1           1.7310    -0.9650    -0.3750 HC         1 APF       0.032098
      6 H2           1.7440     0.8010    -0.5920 HC         1 APF       0.032098
      7 H3           1.6960     0.1110     1.0190 HC         1 APF       0.032098
@<TRIPOS>BOND
     1     1     2 1   
     2     1     5 1   
     3     1     6 1   
     4     1     7 1   
     5     2     3 1   
     6     2     4 1   
@<TRIPOS>SUBSTRUCTURE
     1 APF         1 TEMP              0 ****  ****    0 ROOT
