@<TRIPOS>MOLECULE
AR1
    9     8     1     0     0
SMALL
No Charge or Current Charge


@<TRIPOS>ATOM
      1 N1           2.0820     0.0910     0.0770 NY         1 AR1      -0.190242
      2 C1           0.8100    -0.6060    -0.0920 CY         1 AR1      -0.152589
      3 C2          -0.3410     0.4380    -0.0590 R1         1 AR1       0.544815
      4 C3          -1.7760    -0.1510     0.0510 CT         1 AR1      -0.603031
      5 H1          -2.4840     0.6770     0.0430 HC         1 AR1       0.142800
      6 H2          -0.2630     1.0840    -0.9580 HC         1 AR1      -0.013677
      7 H3          -0.1780     1.1320     0.7910 HC         1 AR1      -0.013677
      8 H4          -1.8490    -0.7600     0.9750 HC         1 AR1       0.142800
      9 H5          -1.9630    -0.8550    -0.7860 HC         1 AR1       0.142800
@<TRIPOS>BOND
     1     1     2 3   
     2     2     3 1   
     3     3     4 1   
     4     3     6 1   
     5     3     7 1   
     6     4     5 1   
     7     4     8 1   
     8     4     9 1   
@<TRIPOS>SUBSTRUCTURE
     1 AR1         1 TEMP              0 ****  ****    0 ROOT
