@<TRIPOS>MOLECULE
AR2
   13    12     1     0     0
SMALL
No Charge or Current Charge


@<TRIPOS>ATOM
      1 C1           1.9590    -0.0420     0.0000 CT         1 AR2      -0.074157
      2 N1           0.6340    -0.6610    -0.0000 R8         1 AR2      -0.525588
      3 C2          -0.5110    -0.0070    -0.0000 CA         1 AR2       0.942253
      4 N2          -0.5310     1.3160    -0.0000 N2         1 AR2      -0.979298
      5 N3          -1.6580    -0.6740     0.0000 N2         1 AR2      -0.979298
      6 H1           2.1060     0.5580    -0.8890 H1         1 AR2       0.115460
      7 H2           2.1060     0.5560     0.8900 H1         1 AR2       0.115460
      8 H3           0.5940    -1.6570    -0.0000 H          1 AR2       0.359536
      9 H4           0.3060     1.8540    -0.0010 H          1 AR2       0.477543
     10 H5          -1.3900     1.8220     0.0000 H          1 AR2       0.477543
     11 H6          -1.6830    -1.6700     0.0000 H          1 AR2       0.477543
     12 H7          -2.5360    -0.2030    -0.0000 H          1 AR2       0.477543
     13 H8           2.6900    -0.8350    -0.0010 H1         1 AR2       0.115460
@<TRIPOS>BOND
     1     1     2 1   
     2     1     6 1   
     3     1     7 1   
     4     1    13 1   
     5     2     3 1   
     6     2     8 1   
     7     3     4 2   
     8     3     5 1   
     9     4     9 1   
    10     4    10 1   
    11     5    11 1   
    12     5    12 1   
@<TRIPOS>SUBSTRUCTURE
     1 AR2         1 TEMP              0 ****  ****    0 ROOT
