@<TRIPOS>MOLECULE
BAK
   12    11     1     0     0
SMALL
No Charge or Current Charge


@<TRIPOS>ATOM
      1 C1          -0.4760     0.1660    -0.0180 R7         1 BAK       0.819470
      2 O1          -0.3890     1.3640    -0.0030 O          1 BAK      -0.612185
      3 C2          -1.8180    -0.5360     0.0150 CT         1 BAK      -0.505967
      4 C3           1.9510    -0.1030     0.0230 CT         1 BAK      -0.294979
      5 H1           0.4840    -1.6210     0.0320 H          1 BAK       0.337869
      6 H2           2.1790     0.2850     1.0100 H1         1 BAK       0.140827
      7 H3           2.0640     0.6990    -0.6920 H1         1 BAK       0.140827
      8 H4           2.6540    -0.8900    -0.2170 H1         1 BAK       0.140827
      9 N1           0.6090    -0.6390    -0.0480 N          1 BAK      -0.561857
     10 H5          -2.1790    -0.5520     1.0380 HC         1 BAK       0.131723
     11 H6          -1.7750    -1.5550    -0.3530 HC         1 BAK       0.131723
     12 H7          -2.5210     0.0330    -0.5780 HC         1 BAK       0.131723
@<TRIPOS>BOND
     1     1     2 2   
     2     1     3 1   
     3     1     9 1   
     4     3    10 1   
     5     3    11 1   
     6     3    12 1   
     7     4     6 1   
     8     4     7 1   
     9     4     8 1   
    10     4     9 1   
    11     5     9 1   
@<TRIPOS>SUBSTRUCTURE
     1 BAK         1 TEMP              0 ****  ****    0 ROOT
