@<TRIPOS>MOLECULE
GNF
   12    11     1     0     0
SMALL
No Charge or Current Charge


@<TRIPOS>ATOM
      1 C1           1.9320     0.1400    -0.0320 CT         1 GNF      -0.033344
      2 C2           0.6990    -0.7590     0.0420 2C         1 GNF      -0.158390
      3 C3          -0.6730    -0.1030     0.0020 R7         1 GNF       0.835723
      4 N1          -0.7230     1.2490     0.0200 N          1 GNF      -1.039306
      5 O1          -1.6670    -0.7730    -0.0310 O          1 GNF      -0.651559
      6 H1           2.8320    -0.4640    -0.0150 HC         1 GNF       0.016437
      7 H2           1.9510     0.7240    -0.9480 HC         1 GNF       0.016437
      8 H3           1.9880     0.8230     0.8110 HC         1 GNF       0.016437
      9 H4           0.7170    -1.3470     0.9550 HC         1 GNF       0.067216
     10 H5           0.7040    -1.4750    -0.7720 HC         1 GNF       0.067216
     11 H6          -1.6200     1.6800    -0.0150 H          1 GNF       0.431566
     12 H7           0.0810     1.8270     0.0190 H          1 GNF       0.431566
@<TRIPOS>BOND
     1     1     2 1   
     2     1     6 1   
     3     1     7 1   
     4     1     8 1   
     5     2     3 1   
     6     2     9 1   
     7     2    10 1   
     8     3     4 1   
     9     3     5 2   
    10     4    11 1   
    11     4    12 1   
@<TRIPOS>SUBSTRUCTURE
     1 GNF         1 TEMP              0 ****  ****    0 ROOT
