@<TRIPOS>MOLECULE
HEF
   12    12     1     0     0
SMALL
No Charge or Current Charge


@<TRIPOS>ATOM
      1 C1           2.1430    -0.0150     0.0000 CT         1 HEF      -0.621613
      2 C2           0.6480     0.0240    -0.0000 RB         1 HEF       0.534380
      3 C3          -0.1760     1.0960    -0.0000 CW         1 HEF      -0.373464
      4 N1          -0.0960    -1.1330    -0.0000 NB         1 HEF      -0.599747
      5 C4          -1.3290    -0.7560     0.0000 CR         1 HEF       0.220749
      6 N2          -1.4520     0.5840     0.0000 NA         1 HEF      -0.342356
      7 H1           2.5140    -0.5380     0.8750 HC         1 HEF       0.164899
      8 H2           2.5140    -0.5380    -0.8750 HC         1 HEF       0.164899
      9 H3           2.5590     0.9870     0.0000 HC         1 HEF       0.164899
     10 H4           0.0170     2.1470    -0.0000 H4         1 HEF       0.217354
     11 H5          -2.1790    -1.4090     0.0000 H5         1 HEF       0.117996
     12 H6          -2.3010     1.1000    -0.0010 H          1 HEF       0.352004
@<TRIPOS>BOND
     1     1     2 1   
     2     1     7 1   
     3     1     8 1   
     4     1     9 1   
     5     2     3 2   
     6     2     4 1   
     7     3     6 1   
     8     3    10 1   
     9     4     5 2   
    10     5     6 1   
    11     5    11 1   
    12     6    12 1   
@<TRIPOS>SUBSTRUCTURE
     1 HEF         1 TEMP              0 ****  ****    0 ROOT
