@<TRIPOS>MOLECULE
ISF
   15    14     1     0     0
SMALL
No Charge or Current Charge


@<TRIPOS>ATOM
      1 C1          -1.5000    -0.8910     0.2610 CY         1 ISF      -0.183474
      2 C2          -0.2150    -0.0800    -0.1810 2C         1 ISF       0.556326
      3 C3           1.1340    -0.6460     0.3690 R2         1 ISF      -0.358762
      4 C4          -0.2950     1.4320     0.1950 CT         1 ISF      -0.382854
      5 C5           2.4140    -0.0900    -0.2880 CT         1 ISF      -0.097467
      6 N1          -2.6790    -0.2350    -0.2890 NY         1 ISF      -0.181806
      7 H1          -0.1620    -0.1470    -1.2880 HC         1 ISF       0.012786
      8 H2           1.1660    -1.7400     0.2160 HC         1 ISF       0.104105
      9 H3           1.1830    -0.5190     1.4690 HC         1 ISF       0.104105
     10 H4          -1.1630     1.9470    -0.2550 HC         1 ISF       0.103294
     11 H5          -0.3520     1.5870     1.2890 HC         1 ISF       0.103294
     12 H6           0.5790     2.0030    -0.1660 HC         1 ISF       0.103294
     13 H7           2.4120    -0.2410    -1.3840 HC         1 ISF       0.039053
     14 H8           2.5510     0.9910    -0.1020 HC         1 ISF       0.039053
     15 H9           3.3160    -0.5940     0.1060 HC         1 ISF       0.039053
@<TRIPOS>BOND
     1     1     2 1   
     2     1     6 3   
     3     2     3 1   
     4     2     4 1   
     5     2     7 1   
     6     3     5 1   
     7     3     8 1   
     8     3     9 1   
     9     4    10 1   
    10     4    11 1   
    11     4    12 1   
    12     5    13 1   
    13     5    14 1   
    14     5    15 1   
@<TRIPOS>SUBSTRUCTURE
     1 ISF         1 TEMP              0 ****  ****    0 ROOT
