@<TRIPOS>MOLECULE
LEF
   15    14     1     0     0
SMALL
No Charge or Current Charge


@<TRIPOS>ATOM
      1 N1           2.7440     0.1370    -0.2040 NY         1 LEF      -0.501423
      2 C1           1.7100    -0.2650     0.0360 CY         1 LEF       0.392754
      3 C2           0.3650    -0.7860     0.3360 2C         1 LEF      -0.294966
      4 C3          -0.7620     0.0240    -0.3350 R2         1 LEF       0.447429
      5 C4          -2.1030    -0.6710    -0.0900 CT         1 LEF      -0.466771
      6 C5          -0.7880     1.4720     0.1590 CT         1 LEF      -0.466771
      7 H1           0.2390    -0.7880     1.4140 HC         1 LEF       0.114339
      8 H2           0.3350    -1.8190     0.0070 HC         1 LEF       0.114339
      9 H3          -0.5690     0.0290    -1.4040 HC         1 LEF      -0.026171
     10 H4          -2.1010    -1.6870    -0.4740 HC         1 LEF       0.114540
     11 H5          -2.3330    -0.7150     0.9710 HC         1 LEF       0.114540
     12 H6          -2.9080    -0.1340    -0.5800 HC         1 LEF       0.114540
     13 H7          -0.9800     1.5140     1.2280 HC         1 LEF       0.114540
     14 H8           0.1510     1.9780    -0.0340 HC         1 LEF       0.114540
     15 H9          -1.5740     2.0290    -0.3400 HC         1 LEF       0.114540
@<TRIPOS>BOND
     1     1     2 3   
     2     2     3 1   
     3     3     4 1   
     4     3     7 1   
     5     3     8 1   
     6     4     5 1   
     7     4     6 1   
     8     4     9 1   
     9     5    10 1   
    10     5    11 1   
    11     5    12 1   
    12     6    13 1   
    13     6    14 1   
    14     6    15 1   
@<TRIPOS>SUBSTRUCTURE
     1 LEF         1 TEMP              0 ****  ****    0 ROOT
