@<TRIPOS>MOLECULE
LYF
   14    13     1     0     0
SMALL
No Charge or Current Charge


@<TRIPOS>ATOM
      1 C1           1.9880    -0.1220     0.0000 CT         1 LYF      -0.270948
      2 C2           0.6000     0.5230    -0.0000 RA         1 LYF      -0.036066
      3 C3          -0.4930    -0.5370    -0.0000 C8         1 LYF       0.151324
      4 N1          -1.8650     0.1170     0.0000 N3         1 LYF      -0.547845
      5 H1           2.7490     0.6460     0.0000 HC         1 LYF       0.101055
      6 H2           2.1370    -0.7380     0.8800 HC         1 LYF       0.101055
      7 H3           2.1370    -0.7380    -0.8790 HC         1 LYF       0.101055
      8 H4           0.4910     1.1570    -0.8760 HC         1 LYF       0.062833
      9 H5           0.4910     1.1570     0.8750 HC         1 LYF       0.062833
     10 H6          -0.4610    -1.1630     0.8800 HP         1 LYF       0.081951
     11 H7          -0.4610    -1.1620    -0.8800 HP         1 LYF       0.081951
     12 H8          -1.9930     0.7030    -0.8140 H          1 LYF       0.370267
     13 H9          -2.6100    -0.5670     0.0010 H          1 LYF       0.370267
     14 H10         -1.9920     0.7030     0.8140 H          1 LYF       0.370267
@<TRIPOS>BOND
     1     1     2 1   
     2     1     5 1   
     3     1     6 1   
     4     1     7 1   
     5     2     3 1   
     6     2     8 1   
     7     2     9 1   
     8     3     4 1   
     9     3    10 1   
    10     3    11 1   
    11     4    12 1   
    12     4    13 1   
    13     4    14 1   
@<TRIPOS>SUBSTRUCTURE
     1 LYF         1 TEMP              0 ****  ****    0 ROOT
