@<TRIPOS>MOLECULE
PHF
   15    15     1     0     0
SMALL
No Charge or Current Charge


@<TRIPOS>ATOM
      1 C1          -2.4170     0.0000     0.0090 CT         1 PHF      -0.399150
      2 C2          -0.9050     0.0000    -0.0110 CA         1 PHF       0.285507
      3 C3          -0.1920    -1.1930    -0.0080 CA         1 PHF      -0.269678
      4 C4          -0.1920     1.1930    -0.0080 CA         1 PHF      -0.269678
      5 C5           1.1930    -1.1960     0.0020 CA         1 PHF      -0.111757
      6 C6           1.1940     1.1960     0.0020 R3         1 PHF      -0.111757
      7 C7           1.8930    -0.0000     0.0070 CA         1 PHF      -0.176226
      8 H1          -2.7930    -0.0130     1.0290 HC         1 PHF       0.110258
      9 H2          -2.8180     0.8830    -0.4760 HC         1 PHF       0.110258
     10 H3          -2.8170    -0.8710    -0.4980 HC         1 PHF       0.110258
     11 H4          -0.7240    -2.1290    -0.0150 HA         1 PHF       0.154139
     12 H5          -0.7230     2.1300    -0.0150 HA         1 PHF       0.154139
     13 H6           1.7250    -2.1310     0.0020 HA         1 PHF       0.136692
     14 H7           1.7260     2.1310     0.0020 HA         1 PHF       0.136692
     15 H8           2.9680    -0.0000     0.0120 HA         1 PHF       0.140302
@<TRIPOS>BOND
     1     1     2 1   
     2     1     8 1   
     3     1     9 1   
     4     1    10 1   
     5     2     3 1   
     6     2     4 2   
     7     3     5 2   
     8     3    11 1   
     9     4     6 1   
    10     4    12 1   
    11     5     7 1   
    12     5    13 1   
    13     6     7 2   
    14     6    14 1   
    15     7    15 1   
@<TRIPOS>SUBSTRUCTURE
     1 PHF         1 TEMP              0 ****  ****    0 ROOT
