@<TRIPOS>MOLECULE
THF
    9     8     1     0     0
SMALL
No Charge or Current Charge


@<TRIPOS>ATOM
      1 C1           0.0900     0.5530     0.0450 R1         1 THF       0.489918
      2 C2          -1.2090    -0.2370    -0.0190 CT         1 THF      -0.298043
      3 O1           1.2220    -0.2620    -0.1100 OH         1 THF      -0.730929
      4 H1           0.1460     1.1130     0.9770 H1         1 THF      -0.043013
      5 H2           1.2730    -0.8710     0.6140 HO         1 THF       0.428966
      6 H3          -1.2680    -0.9570     0.7930 HC         1 THF       0.065371
      7 H4          -2.0670     0.4240     0.0610 HC         1 THF       0.065371
      8 H5          -1.2760    -0.7790    -0.9560 HC         1 THF       0.065371
      9 H6           0.1310     1.2710    -0.7640 H1         1 THF      -0.043013
@<TRIPOS>BOND
     1     1     2 1   
     2     1     3 1   
     3     1     4 1   
     4     1     9 1   
     5     2     6 1   
     6     2     7 1   
     7     2     8 1   
     8     3     5 1   
@<TRIPOS>SUBSTRUCTURE
     1 THF         1 TEMP              0 ****  ****    0 ROOT
