@<TRIPOS>MOLECULE
TRF
   19    20     1     0     0
SMALL
No Charge or Current Charge


@<TRIPOS>ATOM
      1 C1           2.6320    -1.3070     0.0000 CT         1 TRF      -0.319751
      2 C2           1.6030    -0.2160     0.0000 C*         1 TRF       0.042803
      3 C3           1.8200     1.1150     0.0000 CW         1 TRF      -0.216146
      4 C4           0.1660    -0.3840    -0.0000 R5         1 TRF       0.053300
      5 C5          -0.4010     0.8970    -0.0000 CN         1 TRF       0.228395
      6 C6          -0.6760    -1.5010    -0.0000 CA         1 TRF      -0.192807
      7 N1           0.6270     1.8000    -0.0010 NA         1 TRF      -0.466184
      8 C7          -1.7800     1.0960    -0.0000 CA         1 TRF      -0.300502
      9 C8          -2.0390    -1.3120     0.0000 CA         1 TRF      -0.228311
     10 C9          -2.5850    -0.0190     0.0000 CA         1 TRF      -0.097724
     11 H1           2.5360    -1.9430     0.8750 HC         1 TRF       0.097554
     12 H2           2.5360    -1.9430    -0.8760 HC         1 TRF       0.097554
     13 H3           3.6350    -0.8940     0.0000 HC         1 TRF       0.097554
     14 H4           2.7490     1.6490     0.0000 H4         1 TRF       0.208697
     15 H5           0.5320     2.7880     0.0030 H          1 TRF       0.385660
     16 H6          -0.2650    -2.4950    -0.0000 HA         1 TRF       0.160987
     17 H7          -2.2020     2.0860    -0.0000 HA         1 TRF       0.164366
     18 H8          -2.6980    -2.1620     0.0000 HA         1 TRF       0.149546
     19 H9          -3.6540     0.1000     0.0000 HA         1 TRF       0.135010
@<TRIPOS>BOND
     1     1     2 1   
     2     1    11 1   
     3     1    12 1   
     4     1    13 1   
     5     2     3 2   
     6     2     4 1   
     7     3     7 1   
     8     3    14 1   
     9     4     5 1   
    10     4     6 2   
    11     5     7 1   
    12     5     8 2   
    13     6     9 1   
    14     6    16 1   
    15     7    15 1   
    16     8    10 1   
    17     8    17 1   
    18     9    10 2   
    19     9    18 1   
    20    10    19 1   
@<TRIPOS>SUBSTRUCTURE
     1 TRF         1 TEMP              0 ****  ****    0 ROOT
