@<TRIPOS>MOLECULE
TYF
   16    16     1     0     0
SMALL
No Charge or Current Charge


@<TRIPOS>ATOM
      1 C1          -2.8800    -0.0150     0.0000 CT         1 TYF      -0.000000
      2 C2          -1.3690    -0.0140    -0.0000 CA         1 TYF      -0.000000
      3 C3          -0.6560     1.1850    -0.0000 CA         1 TYF      -0.000000
      4 C4          -0.6390    -1.1900    -0.0000 CA         1 TYF      -0.000000
      5 C5           0.7220     1.2110    -0.0000 CA         1 TYF      -0.000000
      6 C6           0.7510    -1.1840     0.0000 R3         1 TYF      -0.000000
      7 C7           1.4330     0.0170     0.0000 CA         1 TYF      -0.000000
      8 O1           2.7850     0.0930     0.0000 OH         1 TYF      -0.000000
      9 H1          -3.2770     0.4930    -0.8750 HC         1 TYF       0.000000
     10 H2          -3.2720    -1.0260    -0.0010 HC         1 TYF       0.000000
     11 H3          -1.1930     2.1190    -0.0000 HA         1 TYF      -0.000000
     12 H4          -1.1520    -2.1360    -0.0000 HA         1 TYF      -0.000000
     13 H5           1.2630     2.1390    -0.0000 HA         1 TYF      -0.000000
     14 H6           1.2920    -2.1150     0.0000 HA         1 TYF      -0.000000
     15 H7           3.1670    -0.7730    -0.0000 HO         1 TYF       0.000000
     16 H8          -3.2760     0.4910     0.8760 HC         1 TYF       0.000000
@<TRIPOS>BOND
     1     1     2 1   
     2     1     9 1   
     3     1    10 1   
     4     1    16 1   
     5     2     3 1   
     6     2     4 2   
     7     3     5 2   
     8     3    11 1   
     9     4     6 1   
    10     4    12 1   
    11     5     7 1   
    12     5    13 1   
    13     6     7 2   
    14     6    14 1   
    15     7     8 1   
    16     8    15 1   
@<TRIPOS>SUBSTRUCTURE
     1 TYF         1 TEMP              0 ****  ****    0 ROOT
