@<TRIPOS>MOLECULE
VAF
   12    11     1     0     0
SMALL
No Charge or Current Charge


@<TRIPOS>ATOM
      1 C1           1.0880    -0.0000    -0.0890 CY         1 VAF       0.239371
      2 C2          -0.3580    -0.0000    -0.4010 R2         1 VAF       0.366590
      3 C3          -1.0170    -1.2740     0.1430 CT         1 VAF      -0.396507
      4 C4          -1.0170     1.2750     0.1430 CT         1 VAF      -0.396507
      5 N1           2.1980    -0.0000     0.1500 NY         1 VAF      -0.467772
      6 H1          -0.4350    -0.0000    -1.4830 HC         1 VAF       0.000855
      7 H2          -0.9470    -1.3140     1.2240 HC         1 VAF       0.108995
      8 H3          -2.0660    -1.2870    -0.1320 HC         1 VAF       0.108995
      9 H4          -0.5470    -2.1630    -0.2620 HC         1 VAF       0.108995
     10 H5          -0.5470     2.1630    -0.2620 HC         1 VAF       0.108995
     11 H6          -2.0660     1.2880    -0.1320 HC         1 VAF       0.108995
     12 H7          -0.9470     1.3140     1.2240 HC         1 VAF       0.108995
@<TRIPOS>BOND
     1     1     2 1   
     2     1     5 3   
     3     2     3 1   
     4     2     4 1   
     5     2     6 1   
     6     3     7 1   
     7     3     8 1   
     8     3     9 1   
     9     4    10 1   
    10     4    11 1   
    11     4    12 1   
@<TRIPOS>SUBSTRUCTURE
     1 VAF         1 TEMP              0 ****  ****    0 ROOT
